<configuration>

<input>
<net-file value="junction.net.xml" /> 
<route-files value="0.5hour/trips/3000.rou.xml" />
</input>
<time>
<begin value="0" />
<end value="10000" />
</time>

</configuration>
