<?xml version="1.0" encoding="UTF-8"?>

<!-- generated on 2023-10-24 17:30:46 by Eclipse SUMO netedit Version 1.18.0
<configuration xmlns:xsi="http://www.w3.org/2001/XMLSchema-instance" xsi:noNamespaceSchemaLocation="http://sumo.dlr.de/xsd/neteditConfiguration.xsd">

    <input>
        <sumo-net-file value="C:\Users\HP\Documents\chula\year4\Capstone\5-junction\test.net.xml"/>
    </input>

    <output>
        <output-file value="C:\Users\HP\Documents\chula\year4\Capstone\5-junction\test.net.xml"/>
    </output>

    <processing>
        <geometry.min-radius.fix.railways value="false"/>
        <geometry.max-grade.fix value="false"/>
        <offset.disable-normalization value="true"/>
        <lefthand value="0"/>
    </processing>

    <junctions>
        <no-turnarounds value="true"/>
        <junctions.corner-detail value="5"/>
        <junctions.limit-turn-speed value="5.50"/>
        <rectangular-lane-cut value="0"/>
    </junctions>

    <pedestrian>
        <walkingareas value="0"/>
    </pedestrian>

</configuration>
-->

<net version="1.16" junctionCornerDetail="5" limitTurnSpeed="5.50" xmlns:xsi="http://www.w3.org/2001/XMLSchema-instance" xsi:noNamespaceSchemaLocation="http://sumo.dlr.de/xsd/net_file.xsd">

    <location netOffset="-707963.20,-1454033.28" convBoundary="270.58,1398.25,1452.27,4526.64" origBoundary="100.918736,13.145504,100.942428,13.186447" projParameter="+proj=utm +zone=47 +ellps=WGS84 +datum=WGS84 +units=m +no_defs"/>

    <type id="highway.footway" priority="1" numLanes="1" speed="2.78" allow="pedestrian" oneway="1" width="2.00"/>
    <type id="highway.residential" priority="3" numLanes="1" speed="13.89" disallow="tram rail_urban rail rail_electric rail_fast ship" oneway="0"/>
    <type id="highway.secondary" priority="11" numLanes="1" speed="27.78" disallow="tram rail_urban rail rail_electric rail_fast ship" oneway="0"/>
    <type id="highway.service" priority="1" numLanes="1" speed="5.56" allow="pedestrian delivery bicycle" oneway="0"/>
    <type id="highway.steps" priority="1" numLanes="1" speed="1.39" allow="pedestrian" oneway="1" width="2.00"/>
    <type id="highway.tertiary" priority="10" numLanes="1" speed="22.22" disallow="tram rail_urban rail rail_electric rail_fast ship" oneway="0"/>
    <type id="highway.trunk" priority="13" numLanes="2" speed="27.78" disallow="pedestrian bicycle tram rail_urban rail rail_electric rail_fast ship" oneway="0"/>
    <type id="highway.trunk_link" priority="8" numLanes="1" speed="22.22" disallow="pedestrian bicycle tram rail_urban rail rail_electric rail_fast ship" oneway="0"/>
    <type id="highway.unclassified" priority="4" numLanes="1" speed="13.89" disallow="tram rail_urban rail rail_electric rail_fast ship" oneway="0"/>

    <edge id=":10293561082_0" function="internal">
        <lane id=":10293561082_0_0" index="0" disallow="pedestrian bicycle tram rail_urban rail rail_electric rail_fast ship" speed="27.78" length="0.30" shape="1388.68,3378.13 1388.67,3377.83"/>
        <lane id=":10293561082_0_1" index="1" disallow="pedestrian bicycle tram rail_urban rail rail_electric rail_fast ship" speed="27.78" length="0.30" shape="1391.87,3378.05 1391.87,3377.75"/>
        <lane id=":10293561082_0_2" index="2" disallow="pedestrian bicycle tram rail_urban rail rail_electric rail_fast ship" speed="27.78" length="0.30" shape="1395.07,3377.97 1395.07,3377.67"/>
        <lane id=":10293561082_0_3" index="3" disallow="pedestrian bicycle tram rail_urban rail rail_electric rail_fast ship" speed="27.78" length="0.30" shape="1398.27,3377.89 1398.26,3377.59"/>
    </edge>
    <edge id=":10293561083_0" function="internal">
        <lane id=":10293561083_0_0" index="0" disallow="pedestrian bicycle tram rail_urban rail rail_electric rail_fast ship" speed="27.78" length="0.30" shape="1385.09,3377.92 1385.09,3378.22"/>
        <lane id=":10293561083_0_1" index="1" disallow="pedestrian bicycle tram rail_urban rail rail_electric rail_fast ship" speed="27.78" length="0.30" shape="1381.89,3377.96 1381.89,3378.26"/>
        <lane id=":10293561083_0_2" index="2" disallow="pedestrian bicycle tram rail_urban rail rail_electric rail_fast ship" speed="27.78" length="0.30" shape="1378.69,3378.00 1378.69,3378.30"/>
        <lane id=":10293561083_0_3" index="3" disallow="pedestrian bicycle tram rail_urban rail rail_electric rail_fast ship" speed="27.78" length="0.30" shape="1375.49,3378.04 1375.49,3378.34"/>
    </edge>
    <edge id=":10970619653_0" function="internal">
        <lane id=":10970619653_0_0" index="0" disallow="pedestrian bicycle tram rail_urban rail rail_electric rail_fast ship" speed="27.78" length="0.30" shape="1384.93,3364.85 1384.93,3365.15"/>
        <lane id=":10970619653_0_1" index="1" disallow="pedestrian bicycle tram rail_urban rail rail_electric rail_fast ship" speed="27.78" length="0.30" shape="1381.73,3364.89 1381.73,3365.19"/>
        <lane id=":10970619653_0_2" index="2" disallow="pedestrian bicycle tram rail_urban rail rail_electric rail_fast ship" speed="27.78" length="0.30" shape="1378.53,3364.93 1378.53,3365.23"/>
        <lane id=":10970619653_0_3" index="3" disallow="pedestrian bicycle tram rail_urban rail rail_electric rail_fast ship" speed="27.78" length="0.30" shape="1375.33,3364.97 1375.33,3365.27"/>
    </edge>
    <edge id=":1323320549_0" function="internal">
        <lane id=":1323320549_0_0" index="0" disallow="pedestrian bicycle tram rail_urban rail rail_electric rail_fast ship" speed="6.54" length="8.21" shape="1381.23,2305.99 1379.32,2306.62 1377.98,2307.83 1377.19,2309.64 1376.95,2312.05"/>
        <lane id=":1323320549_0_1" index="1" disallow="pedestrian bicycle tram rail_urban rail rail_electric rail_fast ship" speed="8.04" length="12.88" shape="1380.75,2302.83 1377.64,2303.81 1375.43,2305.68 1374.14,2308.45 1373.75,2312.10"/>
        <lane id=":1323320549_0_2" index="2" disallow="pedestrian bicycle tram rail_urban rail rail_electric rail_fast ship" speed="9.30" length="17.56" shape="1380.27,2299.66 1375.95,2301.00 1372.89,2303.53 1371.09,2307.25 1370.55,2312.15"/>
    </edge>
    <edge id=":1323320549_3" function="internal">
        <lane id=":1323320549_3_0" index="0" disallow="tram rail_urban rail rail_electric rail_fast ship" speed="3.65" length="4.67" shape="1380.27,2299.66 1378.97,2299.05 1378.45,2298.32 1378.73,2297.47 1379.79,2296.50"/>
    </edge>
    <edge id=":1323320549_4" function="internal">
        <lane id=":1323320549_4_0" index="0" disallow="pedestrian bicycle tram rail_urban rail rail_electric rail_fast ship" speed="5.43" length="6.16" shape="1377.18,2287.93 1377.54,2290.38 1378.02,2292.10 1378.61,2293.08 1379.32,2293.33"/>
    </edge>
    <edge id=":1323320549_5" function="internal">
        <lane id=":1323320549_5_0" index="0" disallow="pedestrian bicycle tram rail_urban rail rail_electric rail_fast ship" speed="27.78" length="23.71" shape="1374.00,2288.26 1374.97,2295.32 1375.88,2300.13 1376.59,2304.95 1376.95,2312.05"/>
        <lane id=":1323320549_5_1" index="1" disallow="pedestrian bicycle tram rail_urban rail rail_electric rail_fast ship" speed="27.78" length="23.71" shape="1370.82,2288.60 1371.78,2295.58 1372.68,2300.33 1373.39,2305.09 1373.75,2312.10"/>
        <lane id=":1323320549_5_2" index="2" disallow="pedestrian bicycle tram rail_urban rail rail_electric rail_fast ship" speed="27.78" length="23.71" shape="1367.63,2288.94 1368.59,2295.83 1369.49,2300.52 1370.19,2305.23 1370.55,2312.15"/>
    </edge>
    <edge id=":1323320549_8" function="internal">
        <lane id=":1323320549_8_0" index="0" disallow="tram rail_urban rail rail_electric rail_fast ship" speed="20.84" length="15.96" shape="1363.78,2296.21 1379.32,2293.33"/>
        <lane id=":1323320549_8_1" index="1" disallow="tram rail_urban rail rail_electric rail_fast ship" speed="20.84" length="15.96" shape="1363.78,2296.21 1368.47,2295.73 1371.76,2296.18 1375.05,2296.72 1379.79,2296.50"/>
    </edge>
    <edge id=":1323320549_10" function="internal">
        <lane id=":1323320549_10_0" index="0" disallow="pedestrian bicycle tram rail_urban rail rail_electric rail_fast ship" speed="9.08" length="21.27" shape="1364.44,2299.34 1369.82,2299.17 1373.70,2301.23 1376.08,2305.52 1376.95,2312.05"/>
        <lane id=":1323320549_10_1" index="1" disallow="pedestrian bicycle tram rail_urban rail rail_electric rail_fast ship" speed="7.79" length="15.37" shape="1365.10,2302.47 1368.82,2302.41 1371.50,2303.99 1373.14,2307.22 1373.75,2312.10"/>
        <lane id=":1323320549_10_2" index="2" disallow="pedestrian bicycle tram rail_urban rail rail_electric rail_fast ship" speed="6.26" length="9.50" shape="1365.76,2305.61 1367.81,2305.65 1369.29,2306.75 1370.21,2308.92 1370.55,2312.15"/>
    </edge>
    <edge id=":1323320550_0" function="internal">
        <lane id=":1323320550_0_0" index="0" disallow="pedestrian bicycle tram rail_urban rail rail_electric rail_fast ship" speed="4.98" length="7.38" shape="1104.91,1935.15 1103.89,1935.85 1104.04,1936.93 1105.37,1938.38 1107.87,1940.19"/>
    </edge>
    <edge id=":1323320550_1" function="internal">
        <lane id=":1323320550_1_0" index="0" disallow="tram rail_urban rail rail_electric rail_fast ship" speed="18.05" length="24.75" shape="1104.91,1935.15 1100.70,1936.98 1095.34,1939.71 1089.06,1942.62 1082.09,1945.04"/>
        <lane id=":1323320550_1_1" index="1" disallow="tram rail_urban rail rail_electric rail_fast ship" speed="18.05" length="24.75" shape="1104.91,1935.15 1081.27,1941.95"/>
    </edge>
    <edge id=":1323320550_3" function="internal">
        <lane id=":1323320550_3_0" index="0" disallow="pedestrian bicycle tram rail_urban rail rail_electric rail_fast ship" speed="14.45" length="23.26" shape="1083.12,1922.31 1090.82,1927.05 1096.86,1930.26 1101.22,1931.95 1103.92,1932.10"/>
    </edge>
    <edge id=":1323320550_4" function="internal">
        <lane id=":1323320550_4_0" index="0" disallow="pedestrian bicycle tram rail_urban rail rail_electric rail_fast ship" speed="27.78" length="30.53" shape="1083.12,1922.31 1107.87,1940.19"/>
        <lane id=":1323320550_4_1" index="1" disallow="pedestrian bicycle tram rail_urban rail rail_electric rail_fast ship" speed="27.78" length="30.53" shape="1081.39,1925.00 1106.14,1942.88"/>
        <lane id=":1323320550_4_2" index="2" disallow="pedestrian bicycle tram rail_urban rail rail_electric rail_fast ship" speed="27.78" length="30.53" shape="1079.65,1927.69 1104.40,1945.56"/>
    </edge>
    <edge id=":1323320550_7" function="internal">
        <lane id=":1323320550_7_0" index="0" disallow="pedestrian bicycle tram rail_urban rail rail_electric rail_fast ship" speed="7.15" length="17.37" shape="1077.92,1930.38 1083.26,1934.41 1085.60,1937.68 1084.93,1940.19 1081.27,1941.95"/>
    </edge>
    <edge id=":1323320550_8" function="internal">
        <lane id=":1323320550_8_0" index="0" disallow="tram rail_urban rail rail_electric rail_fast ship" speed="18.05" length="24.60" shape="1079.62,1935.76 1086.82,1934.32 1093.61,1933.55 1099.47,1932.97 1103.92,1932.10"/>
    </edge>
    <edge id=":1323320550_9" function="internal">
        <lane id=":1323320550_9_0" index="0" disallow="pedestrian bicycle tram rail_urban rail rail_electric rail_fast ship" speed="15.80" length="25.54" shape="1080.44,1938.85 1085.55,1938.31 1091.24,1939.25 1097.53,1941.67 1104.40,1945.56"/>
    </edge>
    <edge id=":1323320550_10" function="internal">
        <lane id=":1323320550_10_0" index="0" disallow="tram rail_urban rail rail_electric rail_fast ship" speed="3.65" length="4.67" shape="1080.44,1938.85 1081.81,1939.32 1082.40,1939.99 1082.22,1940.86 1081.27,1941.95"/>
    </edge>
    <edge id=":1323320552_0" function="internal">
        <lane id=":1323320552_0_0" index="0" disallow="pedestrian bicycle tram rail_urban rail rail_electric rail_fast ship" speed="27.78" length="0.76" shape="1373.69,2255.83 1373.77,2256.22 1373.82,2256.48 1373.86,2256.75 1373.90,2257.14"/>
        <lane id=":1323320552_0_1" index="1" disallow="pedestrian bicycle tram rail_urban rail rail_electric rail_fast ship" speed="27.78" length="0.76" shape="1370.57,2256.54 1370.63,2256.82 1370.66,2257.01 1370.69,2257.20 1370.72,2257.48"/>
        <lane id=":1323320552_0_2" index="2" disallow="pedestrian bicycle tram rail_urban rail rail_electric rail_fast ship" speed="27.78" length="0.76" shape="1367.45,2257.26 1367.48,2257.42 1367.50,2257.53 1367.52,2257.65 1367.54,2257.82"/>
        <lane id=":1323320552_0_3" index="3" disallow="pedestrian bicycle tram rail_urban rail rail_electric rail_fast ship" speed="27.78" length="0.76" shape="1364.33,2257.97 1364.34,2258.02 1364.35,2258.06 1364.35,2258.10 1364.36,2258.16"/>
    </edge>
    <edge id=":1323320570_0" function="internal">
        <lane id=":1323320570_0_0" index="0" disallow="pedestrian bicycle tram rail_urban rail rail_electric rail_fast ship" speed="27.78" length="0.29" shape="1382.55,3235.22 1382.55,3235.45"/>
        <lane id=":1323320570_0_1" index="1" disallow="pedestrian bicycle tram rail_urban rail rail_electric rail_fast ship" speed="27.78" length="0.29" shape="1379.35,3235.27 1379.35,3235.54"/>
        <lane id=":1323320570_0_2" index="2" disallow="pedestrian bicycle tram rail_urban rail rail_electric rail_fast ship" speed="27.78" length="0.29" shape="1376.15,3235.32 1376.15,3235.63"/>
        <lane id=":1323320570_0_3" index="3" disallow="pedestrian bicycle tram rail_urban rail rail_electric rail_fast ship" speed="27.78" length="0.29" shape="1372.95,3235.37 1372.96,3235.72"/>
    </edge>
    <edge id=":1323320580_0" function="internal">
        <lane id=":1323320580_0_0" index="0" disallow="pedestrian bicycle tram rail_urban rail rail_electric rail_fast ship" speed="27.78" length="0.54" shape="1262.66,2037.00 1262.62,2036.97 1262.59,2036.94 1262.56,2036.92 1262.52,2036.89"/>
        <lane id=":1323320580_0_1" index="1" disallow="pedestrian bicycle tram rail_urban rail rail_electric rail_fast ship" speed="27.78" length="0.54" shape="1264.87,2034.69 1264.75,2034.58 1264.67,2034.50 1264.58,2034.43 1264.45,2034.34"/>
        <lane id=":1323320580_0_2" index="2" disallow="pedestrian bicycle tram rail_urban rail rail_electric rail_fast ship" speed="27.78" length="0.54" shape="1267.08,2032.37 1266.88,2032.19 1266.74,2032.06 1266.60,2031.95 1266.39,2031.79"/>
    </edge>
    <edge id=":1323320594_0" function="internal">
        <lane id=":1323320594_0_0" index="0" disallow="pedestrian bicycle tram rail_urban rail rail_electric rail_fast ship" speed="7.15" length="11.76" shape="402.86,1495.17 401.67,1497.77 401.85,1500.23 403.38,1502.57 406.29,1504.77"/>
    </edge>
    <edge id=":1323320594_1" function="internal">
        <lane id=":1323320594_1_0" index="0" disallow="tram rail_urban rail rail_electric rail_fast ship" speed="13.89" length="22.11" shape="402.86,1495.17 400.52,1499.42 398.12,1505.14 396.14,1511.02 395.07,1515.75"/>
    </edge>
    <edge id=":1323320594_2" function="internal">
        <lane id=":1323320594_2_0" index="0" disallow="tram rail_urban rail rail_electric rail_fast ship" speed="3.65" length="4.67" shape="402.86,1495.17 401.53,1495.72 400.64,1495.61 400.20,1494.83 400.21,1493.38"/>
    </edge>
    <edge id=":1323320594_3" function="internal">
        <lane id=":1323320594_3_0" index="0" disallow="pedestrian bicycle tram rail_urban rail rail_electric rail_fast ship" speed="6.54" length="8.67" shape="392.60,1494.66 394.84,1495.65 396.85,1495.77 398.64,1495.02 400.21,1493.38"/>
    </edge>
    <edge id=":1323320594_4" function="internal">
        <lane id=":1323320594_4_0" index="0" disallow="pedestrian bicycle tram rail_urban rail rail_electric rail_fast ship" speed="27.78" length="17.08" shape="392.60,1494.66 396.78,1497.49 399.43,1499.74 402.09,1501.97 406.29,1504.77"/>
        <lane id=":1323320594_4_1" index="1" disallow="pedestrian bicycle tram rail_urban rail rail_electric rail_fast ship" speed="27.78" length="17.08" shape="390.93,1497.39 395.12,1500.23 397.78,1502.48 400.44,1504.72 404.64,1507.52"/>
        <lane id=":1323320594_4_2" index="2" disallow="pedestrian bicycle tram rail_urban rail rail_electric rail_fast ship" speed="27.78" length="17.08" shape="389.27,1500.13 393.46,1502.97 396.12,1505.22 398.79,1507.46 403.00,1510.27"/>
        <lane id=":1323320594_4_3" index="3" disallow="pedestrian bicycle tram rail_urban rail rail_electric rail_fast ship" speed="27.78" length="17.08" shape="387.60,1502.86 391.80,1505.70 394.47,1507.96 397.14,1510.20 401.36,1513.01"/>
    </edge>
    <edge id=":1323320594_8" function="internal">
        <lane id=":1323320594_8_0" index="0" disallow="pedestrian bicycle tram rail_urban rail rail_electric rail_fast ship" speed="9.63" length="14.21" shape="385.94,1505.59 390.13,1508.43 393.05,1511.08 394.70,1513.51 395.07,1515.75"/>
    </edge>
    <edge id=":1323320594_9" function="internal">
        <lane id=":1323320594_9_0" index="0" disallow="tram rail_urban rail rail_electric rail_fast ship" speed="13.89" length="23.59" shape="391.89,1515.36 393.05,1510.40 395.20,1504.04 397.78,1497.84 400.21,1493.38"/>
    </edge>
    <edge id=":1323320594_10" function="internal">
        <lane id=":1323320594_10_0" index="0" disallow="pedestrian bicycle tram rail_urban rail rail_electric rail_fast ship" speed="6.64" length="12.46" shape="391.89,1515.36 392.83,1512.42 394.72,1511.05 397.57,1511.24 401.36,1513.01"/>
    </edge>
    <edge id=":1323320594_11" function="internal">
        <lane id=":1323320594_11_0" index="0" disallow="tram rail_urban rail rail_electric rail_fast ship" speed="3.65" length="4.67" shape="391.89,1515.36 392.83,1514.26 393.68,1513.97 394.42,1514.46 395.07,1515.75"/>
    </edge>
    <edge id=":1323320603_0" function="internal">
        <lane id=":1323320603_0_0" index="0" disallow="pedestrian bicycle tram rail_urban rail rail_electric rail_fast ship" speed="27.78" length="0.93" shape="1259.61,2043.80 1259.98,2044.08 1260.22,2044.28 1260.44,2044.51 1260.75,2044.85"/>
        <lane id=":1323320603_0_1" index="1" disallow="pedestrian bicycle tram rail_urban rail rail_electric rail_fast ship" speed="27.78" length="0.93" shape="1257.69,2046.36 1257.91,2046.53 1258.05,2046.65 1258.19,2046.78 1258.37,2046.99"/>
        <lane id=":1323320603_0_2" index="2" disallow="pedestrian bicycle tram rail_urban rail rail_electric rail_fast ship" speed="27.78" length="0.93" shape="1255.76,2048.92 1255.84,2048.97 1255.88,2049.01 1255.93,2049.06 1255.99,2049.13"/>
    </edge>
    <edge id=":1323320612_0" function="internal">
        <lane id=":1323320612_0_0" index="0" disallow="pedestrian bicycle tram rail_urban rail rail_electric rail_fast ship" speed="4.77" length="5.41" shape="1292.98,2074.94 1292.07,2075.58 1291.83,2076.54 1292.25,2077.83 1293.34,2079.45"/>
        <lane id=":1323320612_0_1" index="1" disallow="pedestrian bicycle tram rail_urban rail rail_electric rail_fast ship" speed="6.67" length="11.80" shape="1291.86,2071.95 1289.32,2073.47 1288.30,2075.56 1288.80,2078.22 1290.83,2081.44"/>
        <lane id=":1323320612_0_2" index="2" disallow="pedestrian bicycle tram rail_urban rail rail_electric rail_fast ship" speed="7.43" length="14.97" shape="1291.86,2071.95 1287.98,2074.04 1286.10,2076.65 1286.21,2079.78 1288.32,2083.43"/>
    </edge>
    <edge id=":1323320612_3" function="internal">
        <lane id=":1323320612_3_0" index="0" disallow="pedestrian bicycle tram rail_urban rail rail_electric rail_fast ship" speed="27.78" length="13.44" shape="1283.40,2070.06 1285.88,2073.22 1287.23,2075.65 1288.52,2078.13 1290.83,2081.44"/>
        <lane id=":1323320612_3_1" index="1" disallow="pedestrian bicycle tram rail_urban rail rail_electric rail_fast ship" speed="27.78" length="13.44" shape="1281.02,2072.20 1283.46,2075.32 1284.79,2077.71 1286.05,2080.16 1288.32,2083.43"/>
        <lane id=":1323320612_3_2" index="2" disallow="pedestrian bicycle tram rail_urban rail rail_electric rail_fast ship" speed="27.78" length="13.44" shape="1278.64,2074.33 1281.04,2077.41 1282.34,2079.78 1283.58,2082.20 1285.82,2085.42"/>
    </edge>
    <edge id=":1323320621_0" function="internal">
        <lane id=":1323320621_0_0" index="0" disallow="pedestrian bicycle tram rail_urban rail rail_electric rail_fast ship" speed="6.04" length="7.21" shape="1383.70,3013.31 1381.78,3013.75 1380.41,3014.68 1379.60,3016.11 1379.35,3018.02"/>
        <lane id=":1323320621_0_1" index="1" disallow="pedestrian bicycle tram rail_urban rail rail_electric rail_fast ship" speed="7.63" length="12.10" shape="1383.42,3010.12 1380.20,3010.86 1377.92,3012.43 1376.57,3014.84 1376.15,3018.07"/>
        <lane id=":1323320621_0_2" index="2" disallow="pedestrian bicycle tram rail_urban rail rail_electric rail_fast ship" speed="8.34" length="14.65" shape="1383.42,3010.12 1378.80,3010.97 1375.52,3012.58 1373.57,3014.97 1372.95,3018.12"/>
    </edge>
    <edge id=":1323320621_3" function="internal">
        <lane id=":1323320621_3_0" index="0" disallow="tram rail_urban rail rail_electric rail_fast ship" speed="13.89" length="19.88" shape="1383.42,3010.12 1377.63,3011.14 1373.81,3012.64 1370.00,3014.22 1364.23,3015.50"/>
        <lane id=":1323320621_3_1" index="1" disallow="tram rail_urban rail rail_electric rail_fast ship" speed="13.89" length="19.88" shape="1383.42,3010.12 1363.81,3012.32"/>
    </edge>
    <edge id=":1323320621_5" function="internal">
        <lane id=":1323320621_5_0" index="0" disallow="pedestrian bicycle tram rail_urban rail rail_electric rail_fast ship" speed="27.78" length="13.04" shape="1379.23,3005.03 1379.35,3018.02"/>
        <lane id=":1323320621_5_1" index="1" disallow="pedestrian bicycle tram rail_urban rail rail_electric rail_fast ship" speed="27.78" length="13.04" shape="1376.03,3005.05 1376.15,3018.07"/>
        <lane id=":1323320621_5_2" index="2" disallow="pedestrian bicycle tram rail_urban rail rail_electric rail_fast ship" speed="27.78" length="13.04" shape="1372.83,3005.06 1372.95,3018.12"/>
        <lane id=":1323320621_5_3" index="3" disallow="pedestrian bicycle tram rail_urban rail rail_electric rail_fast ship" speed="27.78" length="13.04" shape="1369.63,3005.08 1369.75,3018.17"/>
    </edge>
    <edge id=":1323320621_9" function="internal">
        <lane id=":1323320621_9_0" index="0" disallow="pedestrian bicycle tram rail_urban rail rail_electric rail_fast ship" speed="7.24" length="10.32" shape="1369.63,3005.08 1369.28,3007.96 1368.19,3010.12 1366.37,3011.58 1363.81,3012.32"/>
    </edge>
    <edge id=":1663972625_0" function="internal">
        <lane id=":1663972625_0_0" index="0" disallow="pedestrian bicycle tram rail_urban rail rail_electric rail_fast ship" speed="5.29" length="4.64" shape="1297.23,2076.12 1296.43,2075.21 1295.48,2074.70 1294.40,2074.59 1293.17,2074.87"/>
        <lane id=":1663972625_0_1" index="1" disallow="pedestrian bicycle tram rail_urban rail rail_electric rail_fast ship" speed="6.34" length="7.05" shape="1297.23,2076.12 1295.68,2074.00 1294.29,2072.58 1293.08,2071.88 1292.05,2071.88"/>
    </edge>
    <edge id=":1663972625_2" function="internal">
        <lane id=":1663972625_2_0" index="0" disallow="pedestrian bicycle tram rail_urban rail rail_electric rail_fast ship" speed="27.78" length="11.61" shape="1297.23,2076.12 1290.44,2067.02"/>
        <lane id=":1663972625_2_1" index="1" disallow="pedestrian bicycle tram rail_urban rail rail_electric rail_fast ship" speed="27.78" length="11.61" shape="1299.90,2074.35 1292.96,2065.04"/>
        <lane id=":1663972625_2_2" index="2" disallow="pedestrian bicycle tram rail_urban rail rail_electric rail_fast ship" speed="27.78" length="11.61" shape="1302.57,2072.58 1295.47,2063.07"/>
    </edge>
    <edge id=":1664001400_0" function="internal">
        <lane id=":1664001400_0_0" index="0" disallow="pedestrian bicycle tram rail_urban rail rail_electric rail_fast ship" speed="27.78" length="0.43" shape="1351.32,2169.28 1351.31,2169.24 1351.30,2169.21 1351.28,2169.19 1351.27,2169.15"/>
        <lane id=":1664001400_0_1" index="1" disallow="pedestrian bicycle tram rail_urban rail rail_electric rail_fast ship" speed="27.78" length="0.43" shape="1354.30,2168.10 1354.25,2167.98 1354.22,2167.90 1354.18,2167.82 1354.12,2167.71"/>
        <lane id=":1664001400_0_2" index="2" disallow="pedestrian bicycle tram rail_urban rail rail_electric rail_fast ship" speed="27.78" length="0.43" shape="1357.27,2166.92 1357.20,2166.72 1357.14,2166.59 1357.08,2166.46 1356.98,2166.27"/>
    </edge>
    <edge id=":1665523171_0" function="internal">
        <lane id=":1665523171_0_0" index="0" disallow="pedestrian bicycle tram rail_urban rail rail_electric rail_fast ship" speed="27.78" length="0.30" shape="1387.27,2740.53 1387.27,2740.25"/>
        <lane id=":1665523171_0_1" index="1" disallow="pedestrian bicycle tram rail_urban rail rail_electric rail_fast ship" speed="27.78" length="0.30" shape="1390.47,2740.52 1390.47,2740.22"/>
        <lane id=":1665523171_0_2" index="2" disallow="pedestrian bicycle tram rail_urban rail rail_electric rail_fast ship" speed="27.78" length="0.30" shape="1393.67,2740.51 1393.67,2740.19"/>
    </edge>
    <edge id=":1665531649_0" function="internal">
        <lane id=":1665531649_0_0" index="0" disallow="pedestrian bicycle tram rail_urban rail rail_electric rail_fast ship" speed="27.78" length="12.23" shape="1388.40,3028.98 1388.35,3016.72"/>
        <lane id=":1665531649_0_1" index="1" disallow="pedestrian bicycle tram rail_urban rail rail_electric rail_fast ship" speed="27.78" length="12.23" shape="1391.60,3028.95 1391.55,3016.72"/>
        <lane id=":1665531649_0_2" index="2" disallow="pedestrian bicycle tram rail_urban rail rail_electric rail_fast ship" speed="27.78" length="12.23" shape="1394.80,3028.93 1394.75,3016.73"/>
    </edge>
    <edge id=":1665531649_3" function="internal">
        <lane id=":1665531649_3_0" index="0" disallow="pedestrian bicycle tram rail_urban rail rail_electric rail_fast ship" speed="8.60" length="9.62" shape="1394.80,3028.93 1394.97,3025.79 1395.51,3023.28 1396.44,3021.40 1397.75,3020.15"/>
    </edge>
    <edge id=":1665531649_4" function="internal">
        <lane id=":1665531649_4_0" index="0" disallow="pedestrian bicycle tram rail_urban rail rail_electric rail_fast ship" speed="6.08" length="7.08" shape="1384.01,3021.36 1385.91,3020.89 1387.27,3019.96 1388.08,3018.57 1388.35,3016.72"/>
        <lane id=":1665531649_4_1" index="1" disallow="pedestrian bicycle tram rail_urban rail rail_electric rail_fast ship" speed="7.66" length="11.83" shape="1384.37,3024.54 1387.51,3023.75 1389.75,3022.19 1391.10,3019.84 1391.55,3016.72"/>
    </edge>
    <edge id=":1665531649_6" function="internal">
        <lane id=":1665531649_6_0" index="0" disallow="tram rail_urban rail rail_electric rail_fast ship" speed="13.89" length="14.14" shape="1384.37,3024.54 1388.25,3023.62 1390.59,3022.06 1392.74,3019.96 1396.06,3017.43"/>
        <lane id=":1665531649_6_1" index="1" disallow="tram rail_urban rail rail_electric rail_fast ship" speed="13.89" length="14.14" shape="1384.37,3024.54 1388.57,3024.05 1391.44,3023.45 1394.12,3022.30 1397.75,3020.15"/>
    </edge>
    <edge id=":1665552455_0" function="internal">
        <lane id=":1665552455_0_0" index="0" disallow="pedestrian bicycle tram rail_urban rail rail_electric rail_fast ship" speed="4.68" length="4.00" shape="1390.74,3545.57 1390.59,3544.41 1390.17,3543.56 1389.47,3543.03 1388.49,3542.82"/>
        <lane id=":1665552455_0_1" index="1" disallow="pedestrian bicycle tram rail_urban rail rail_electric rail_fast ship" speed="5.83" length="6.76" shape="1390.74,3545.57 1390.60,3543.01 1390.20,3541.16 1389.55,3540.03 1388.65,3539.62"/>
        <lane id=":1665552455_0_2" index="2" disallow="pedestrian bicycle tram rail_urban rail rail_electric rail_fast ship" speed="6.85" length="9.70" shape="1390.74,3545.57 1390.60,3541.61 1390.23,3538.76 1389.63,3537.03 1388.80,3536.43"/>
    </edge>
    <edge id=":1665552455_3" function="internal">
        <lane id=":1665552455_3_0" index="0" disallow="pedestrian bicycle tram rail_urban rail rail_electric rail_fast ship" speed="27.78" length="14.48" shape="1390.74,3545.57 1390.75,3531.06"/>
        <lane id=":1665552455_3_1" index="1" disallow="pedestrian bicycle tram rail_urban rail rail_electric rail_fast ship" speed="27.78" length="14.48" shape="1393.94,3545.56 1393.95,3531.07"/>
        <lane id=":1665552455_3_2" index="2" disallow="pedestrian bicycle tram rail_urban rail rail_electric rail_fast ship" speed="27.78" length="14.48" shape="1397.14,3545.54 1397.15,3531.09"/>
    </edge>
    <edge id=":1665552457_0" function="internal">
        <lane id=":1665552457_0_0" index="0" disallow="pedestrian bicycle tram rail_urban rail rail_electric rail_fast ship" speed="27.78" length="0.31" shape="1388.09,3353.86 1388.08,3353.46"/>
        <lane id=":1665552457_0_1" index="1" disallow="pedestrian bicycle tram rail_urban rail rail_electric rail_fast ship" speed="27.78" length="0.31" shape="1391.28,3353.78 1391.28,3353.44"/>
        <lane id=":1665552457_0_2" index="2" disallow="pedestrian bicycle tram rail_urban rail rail_electric rail_fast ship" speed="27.78" length="0.31" shape="1394.48,3353.70 1394.48,3353.43"/>
        <lane id=":1665552457_0_3" index="3" disallow="pedestrian bicycle tram rail_urban rail rail_electric rail_fast ship" speed="27.78" length="0.31" shape="1397.68,3353.63 1397.68,3353.42"/>
    </edge>
    <edge id=":1665638586_0" function="internal">
        <lane id=":1665638586_0_0" index="0" disallow="pedestrian bicycle tram rail_urban rail rail_electric rail_fast ship" speed="27.78" length="0.10" shape="1389.02,3185.68 1389.02,3185.68"/>
        <lane id=":1665638586_0_1" index="1" disallow="pedestrian bicycle tram rail_urban rail rail_electric rail_fast ship" speed="27.78" length="0.10" shape="1392.22,3185.67 1392.22,3185.67"/>
        <lane id=":1665638586_0_2" index="2" disallow="pedestrian bicycle tram rail_urban rail rail_electric rail_fast ship" speed="27.78" length="0.10" shape="1395.42,3185.66 1395.42,3185.66"/>
    </edge>