<?xml version="1.0" encoding="UTF-8"?>

<!-- generated on 2023-10-24 17:31:04.962770 by randomTrips.py v1_18_0+0000-03ecfdea036
<configuration>
    <net-file value="test.net.xml"/>
    <route-file value="test.rou.xml"/>
    <length value="True"/>
    <end value="150.0"/>
</configuration>
-->

<!-- generated on 2023-10-24 17:31:04 by Eclipse SUMO duarouter Version 1.18.0
<configuration xmlns:xsi="http://www.w3.org/2001/XMLSchema-instance" xsi:noNamespaceSchemaLocation="http://sumo.dlr.de/xsd/duarouterConfiguration.xsd">

    <input>
        <net-file value="test.net.xml"/>
        <route-files value="trips.trips.xml"/>
    </input>

    <output>
        <output-file value="test.rou.xml"/>
        <alternatives-output value="NUL"/>
    </output>

    <time>
        <begin value="0"/>
        <end value="150.0"/>
    </time>

    <report>
        <no-warnings value="true"/>
        <ignore-errors value="true"/>
        <no-step-log value="true"/>
    </report>

</configuration>
-->

<routes xmlns:xsi="http://www.w3.org/2001/XMLSchema-instance" xsi:noNamespaceSchemaLocation="http://sumo.dlr.de/xsd/routes_file.xsd">
    <vehicle id="0" depart="0.00">
        <route edges="709818278#8 709818278#9 687664031#0 687664031#1 687664031#2 687664031#3 1125655185#0"/>
    </vehicle>
    <vehicle id="1" depart="1.00">
        <route edges="687646996#1"/>
    </vehicle>
    <vehicle id="3" depart="3.00">
        <route edges="725216326#2 725216326#3 725216326#4 -55083309 197881372#0 197881372#1 197881372#2 197881372#3 197881372#4 725216327 687652020 687654384#0 687654384#1 710370617 709823301#0 709823301#1 709823301#2 709823301#3 709823301#4 687652021#0 687652021#1 687652021#2 687652021#3 687654382 725216322 725216321 352306914"/>
    </vehicle>
    <vehicle id="4" depart="4.00">
        <route edges="687648709#1 687648709#2 687648707 710374313 709814100 710374312 709814103#0 709814103#1 709814103#2 709814103#3 709814103#4 709814103#5 709818278#0 709818278#1 709818278#2 709818278#3 709818278#4 709818278#5 709818278#6 709818278#7 709818278#8 709818278#9 687664031#0 687664031#1 687664031#2 687664031#3 1125655185#0 1125655185#1"/>
    </vehicle>
    <vehicle id="5" depart="5.00">
        <route edges="471369594#8 471369594#9 725216325 725216326#0 725216326#1 725216326#2 725216326#3 725216326#4 725216326#5 725216326#6 725216326#7 725216326#8 725216326#9 725216326#10 710374312 709814103#0 709814103#1 709814103#2 709814103#3 709814103#4 709814103#5 709818278#0 709818278#1 709818278#2 709818278#3"/>
    </vehicle>
    <vehicle id="6" depart="6.00">
        <route edges="-726014605#2 -726014605#1 -726014605#0 709818278#0 709818278#1 709818278#2 709818278#3 709818278#4 709818278#5 709818278#6 709818278#7 709818278#8 709818278#9 687664031#0 687664031#1 687664031#2 687664031#3 -197145499 687646996#0"/>
    </vehicle>
    <vehicle id="7" depart="7.00">
        <route edges="709823301#0 709823301#1 709823301#2 709823301#3 709823301#4 687652021#0 687652021#1 687652021#2 687652021#3 687654382 352306916 471369594#1 471369594#2 471369594#3 471369594#4 471369594#5 471369594#6 471369594#7 471369594#8 471369594#9 725216325 725216326#0 725216326#1 725216326#2 725216326#3 725216326#4 725216326#5 725216326#6 725216326#7 725216326#8 725216326#9 725216326#10 710374312 709814103#0 709814103#1 709814103#2 709814103#3 709814103#4 709814103#5 709818278#0 709818278#1 709818278#2 709818278#3 709818278#4"/>
    </vehicle>
    <vehicle id="8" depart="8.00">
        <route edges="471369594#8 471369594#9 725216325 725216326#0 725216326#1 725216326#2 725216326#3 725216326#4 725216326#5 725216326#6 725216326#7 725216326#8 725216326#9 725216326#10 710374312 709814103#0 709814103#1 709814103#2 709814103#3 709814103#4 709814103#5 709818278#0 709818278#1 709818278#2 709818278#3 709818278#4 709818278#5 709818278#6"/>
    </vehicle>
    <vehicle id="10" depart="10.00">
        <route edges="711425507#1 725216324#0 725216324#1 725216324#2 725216324#3 725216323#0 725216323#1 471369594#0 471369594#1 709823118 687654382 725216322 725216321 352306914 711063443#0"/>
    </vehicle>
    <vehicle id="11" depart="11.00">
        <route edges="687646996#6 687646996#7 687646996#8 687647803#0 687647803#1 687647803#2 687648709#0 687648709#1 687648709#2 687648707 710374313 687648706#0 687648706#1 687651315#0 687651315#1 687651315#2 197881372#0 197881372#1 197881372#2 197881372#3 197881372#4 725216327 687652020 687654384#0 687654384#1 710370617 709823301#0 709823301#1 709823301#2 709823301#3 709823301#4 687652021#0 687652021#1 687652021#2 687652021#3 687654382 352306916 471369594#1 471369594#2 471369594#3 471369594#4 471369594#5 471369594#6 471369594#7"/>
    </vehicle>
    <vehicle id="12" depart="12.00">
        <route edges="727606775#2 727606775#3 727606775#4 709825080 711425508#0 711425508#1 727606779#0 727606779#1 1125655182 711425507#0 711425507#1 725216324#0 725216324#1 725216324#2 725216324#3 725216323#0 725216323#1 471369594#0 471369594#1 471369594#2 471369594#3 471369594#4 471369594#5 471369594#6 471369594#7 471369594#8 471369594#9 725216325 725216326#0 725216326#1 725216326#2 725216326#3 725216326#4 725216326#5 725216326#6 725216326#7 725216326#8 725216326#9 725216326#10 710374312 709814104 710374313 687648706#0"/>
    </vehicle>
    <vehicle id="13" depart="13.00">
        <route edges="197881372#4 725216327 687652020 687654384#0 687654384#1 710370617 709823301#0 709823301#1 709823301#2 709823301#3 709823301#4 687652021#0 687652021#1 687652021#2 687652021#3 687654382 725216322 725216321 352306914"/>
    </vehicle>
    <vehicle id="14" depart="14.00">
        <route edges="725216324#2 725216324#3 725216323#0 725216323#1 471369594#0 471369594#1 471369594#2 471369594#3 471369594#4 471369594#5 471369594#6 471369594#7 471369594#8 471369594#9 725216325 725216326#0 725216326#1 725216326#2 725216326#3 725216326#4 -55083309 197881372#0 197881372#1 197881372#2 197881372#3 197881372#4 725216327 687652020 687654384#0 687654384#1 710370617 709823301#0"/>
    </vehicle>
    <vehicle id="15" depart="15.00">
        <route edges="711425507#1 725216324#0 725216324#1 725216324#2 725216324#3 725216323#0 725216323#1 471369594#0 471369594#1 709823118 687654382 725216322 725216321 352306914 711063443#0 711063443#1 711063443#2 711063443#3 711063443#4"/>
    </vehicle>
    <vehicle id="16" depart="16.00">
        <route edges="709818278#0 709818278#1 709818278#2 709818278#3 709818278#4 709818278#5 709818278#6 709818278#7 709818278#8 709818278#9 687664031#0 687664031#1 687664031#2 687664031#3 -197145499 687646996#0 687646996#1 687646996#2 687646996#3 687646996#4 687646996#5 687646996#6 687646996#7 687646996#8 687647803#0 687647803#1 687647803#2 687648709#0 687648709#1 687648709#2 687648707 710374313 687648706#0 687648706#1 687651315#0 687651315#1 687651315#2 197881372#0 197881372#1 197881372#2 197881372#3 197881372#4 725216327 687652020 687654384#0 687654384#1 710370617 709823301#0 709823301#1 709823301#2 709823301#3 709823301#4 687652021#0 687652021#1 687652021#2 687652021#3 687654382 725216322 725216321 352306914 711063443#0 711063443#1 711063443#2 711063443#3 711063443#4 1125655183 727606780 687654378#0 687654378#1 687654377 727606777#0"/>
    </vehicle>
    <vehicle id="17" depart="17.00">
        <route edges="687647803#2 -187958390 709818278#0 709818278#1 709818278#2 709818278#3 709818278#4 709818278#5 709818278#6"/>
    </vehicle>
    <vehicle id="18" depart="18.00">
        <route edges="725216323#0 725216323#1 471369594#0 471369594#1 471369594#2 471369594#3 471369594#4 471369594#5 471369594#6 471369594#7 471369594#8 471369594#9 725216325 725216326#0 725216326#1 725216326#2 725216326#3 725216326#4 -55083309 197881372#0 197881372#1 197881372#2 197881372#3 197881372#4 725216327 687652020 687654384#0 687654384#1 710370617 709823301#0 709823301#1"/>
    </vehicle>
    <vehicle id="19" depart="19.00">
        <route edges="725216324#3 725216323#0 725216323#1 471369594#0 471369594#1 471369594#2 471369594#3 471369594#4 471369594#5 471369594#6 471369594#7 471369594#8 471369594#9 725216325 725216326#0 725216326#1 725216326#2 725216326#3 725216326#4 725216326#5 725216326#6 725216326#7 725216326#8 725216326#9 725216326#10 710374312 709814103#0 709814103#1 709814103#2 709814103#3 709814103#4 709814103#5 709818278#0 709818278#1 709818278#2 709818278#3 709818278#4 709818278#5 709818278#6"/>
    </vehicle>
    <vehicle id="20" depart="20.00">
        <route edges="709825076#0 709825076#1 709825076#2 711425508#1 727606779#0 727606779#1 1125655182 711425507#0 711425507#1 725216324#0 725216324#1 725216324#2 725216324#3 725216323#0 725216323#1 471369594#0 471369594#1 471369594#2 471369594#3 471369594#4 471369594#5 471369594#6 471369594#7 471369594#8 471369594#9 725216325 725216326#0 725216326#1 725216326#2 725216326#3 725216326#4 725216326#5 725216326#6 725216326#7 725216326#8 725216326#9 725216326#10 710374312 709814103#0 709814103#1 709814103#2 709814103#3 709814103#4 709814103#5 187958390 154086406#0 154086406#1 154086406#2"/>
    </vehicle>
    <vehicle id="21" depart="21.00">
        <route edges="471369594#9 725216325 725216326#0 725216326#1 725216326#2 725216326#3 725216326#4 725216326#5 725216326#6 725216326#7 725216326#8 725216326#9 725216326#10 710374312 709814103#0 709814103#1 709814103#2 709814103#3 709814103#4 709814103#5 709818278#0 709818278#1 709818278#2 709818278#3 709818278#4 709818278#5 709818278#6 709818278#7 709818278#8 709818278#9 687664031#0 687664031#1 687664031#2 687664031#3 -197145499 687646996#0 687646996#1 687646996#2 687646996#3 687646996#4 687646996#5 687646996#6 687646996#7 687646996#8"/>
    </vehicle>
    <vehicle id="22" depart="22.00">
        <route edges="197881372#1 197881372#2 197881372#3 197881372#4 725216327 687652020 687654384#0 687654384#1 710370617 709823301#0 709823301#1 709823301#2 709823301#3 709823301#4 687652021#0 687652021#1 687652021#2 687652021#3 687654382 352306916 471369594#1 471369594#2 471369594#3 471369594#4 471369594#5 471369594#6 471369594#7 471369594#8 471369594#9 725216325 725216326#0 725216326#1 725216326#2 725216326#3 725216326#4 725216326#5 725216326#6 725216326#7 725216326#8 725216326#9 725216326#10 710374312 709814103#0 709814103#1 709814103#2 709814103#3 709814103#4 709814103#5 709818278#0 709818278#1 709818278#2 709818278#3 709818278#4 709818278#5 709818278#6 709818278#7 709818278#8 709818278#9 687664031#0 687664031#1 687664031#2 687664031#3 -197145499 687646996#0 687646996#1"/>
    </vehicle>
    <vehicle id="23" depart="23.00">
        <route edges="197881372#4 725216327 687652020 687654384#0 687654384#1 710370617 709823301#0 709823301#1 709823301#2 709823301#3 709823301#4 687652021#0 687652021#1 687652021#2 687652021#3 687654382 352306916 471369594#1 471369594#2 471369594#3 471369594#4 471369594#5 471369594#6 471369594#7 471369594#8 471369594#9 725216325 725216326#0 725216326#1 725216326#2 725216326#3 725216326#4 725216326#5 725216326#6 725216326#7 725216326#8 725216326#9 725216326#10 710374312 709814103#0 709814103#1 709814103#2 709814103#3 709814103#4 709814103#5 709818278#0 709818278#1 709818278#2 709818278#3 709818278#4 709818278#5 709818278#6 709818278#7 709818278#8 709818278#9 687664031#0 687664031#1 687664031#2 687664031#3 -197145499 687646996#0 687646996#1 687646996#2 687646996#3 687646996#4 687646996#5 687646996#6"/>
    </vehicle>
    <vehicle id="24" depart="24.00">
        <route edges="709818278#7 709818278#8 709818278#9 687664031#0 687664031#1 687664031#2 687664031#3 -197145499 687646996#0 687646996#1 687646996#2 687646996#3 687646996#4 687646996#5 687646996#6 687646996#7 687646996#8 687647803#0 687647803#1 687647803#2 687648709#0 687648709#1"/>
    </vehicle>
    <vehicle id="25" depart="25.00">
        <route edges="687646996#8 687647803#0 687647803#1 687647803#2 -187958390 709818278#0 709818278#1 709818278#2 709818278#3 709818278#4 709818278#5 709818278#6 709818278#7 709818278#8 709818278#9 687664031#0 687664031#1 687664031#2 687664031#3 -197145499 687646996#0 687646996#1"/>
    </vehicle>
    <vehicle id="27" depart="27.00">
        <route edges="709823301#0 709823301#1"/>
    </vehicle>
    <vehicle id="28" depart="28.00">
        <route edges="471369594#5 471369594#6 471369594#7 471369594#8 471369594#9 725216325 725216326#0 725216326#1 725216326#2 725216326#3 725216326#4 -55083309 197881372#0 197881372#1 197881372#2 197881372#3 197881372#4 725216327 687652020 687654384#0 687654384#1 710370617 709823301#0 709823301#1 709823301#2 709823301#3 709823301#4 687652021#0 687652021#1 687652021#2 687652021#3 687654382 725216322 725216321 352306914 711063443#0 711063443#1 711063443#2 711063443#3 711063443#4"/>
    </vehicle>
    <vehicle id="29" depart="29.00">
        <route edges="471369594#3 471369594#4 471369594#5 471369594#6 471369594#7 471369594#8 471369594#9 725216325 725216326#0 725216326#1 725216326#2 725216326#3 725216326#4 725216326#5 725216326#6 725216326#7 725216326#8 725216326#9 725216326#10 710374312 709814103#0 709814103#1 709814103#2 709814103#3 709814103#4 709814103#5 187958390 687648709#0 687648709#1 687648709#2"/>
    </vehicle>
    <vehicle id="32" depart="32.00">
        <route edges="725216324#1 725216324#2 725216324#3 725216323#0 725216323#1 471369594#0 471369594#1 709823118 687654382 725216322 725216321 352306914 711063443#0 711063443#1 711063443#2 711063443#3 711063443#4 1125655183 727606780 687654378#0 687654378#1 687654377 197144971 709825080 711425508#0 711425508#1 727606779#0 727606779#1 1125655182 711425507#0 711425507#1"/>
    </vehicle>
    <vehicle id="33" depart="33.00">
        <route edges="687645714#0 687645714#1 197145499 1125655185#0 1125655185#1 1125655185#2"/>
    </vehicle>
    <vehicle id="34" depart="34.00">
        <route edges="687646996#3 687646996#4 687646996#5"/>
    </vehicle>
    <vehicle id="36" depart="36.00">
        <route edges="725216326#1 725216326#2 725216326#3 725216326#4 725216326#5 725216326#6 725216326#7 725216326#8 725216326#9 725216326#10 710374312 709814103#0 709814103#1 709814103#2 709814103#3 709814103#4 709814103#5 709818278#0 709818278#1 709818278#2 709818278#3 709818278#4 709818278#5 709818278#6 709818278#7 709818278#8 709818278#9 687664031#0 687664031#1 687664031#2 687664031#3 -197145499 687646996#0 687646996#1 687646996#2 687646996#3 687646996#4 687646996#5 687646996#6 687646996#7 687646996#8 687647803#0"/>
    </vehicle>
    <vehicle id="37" depart="37.00">
        <route edges="709823301#1 709823301#2 709823301#3 709823301#4 687652021#0 687652021#1 687652021#2 687652021#3 687654382 352306916 471369594#1 471369594#2 471369594#3 471369594#4 471369594#5 471369594#6 471369594#7 471369594#8 471369594#9 725216325 725216326#0 725216326#1 725216326#2 725216326#3 725216326#4 725216326#5 725216326#6 725216326#7 725216326#8 725216326#9 725216326#10 710374312 709814104 710374313 687648706#0 687648706#1 687651315#0"/>
    </vehicle>
    <vehicle id="38" depart="38.00">
        <route edges="725216326#8 725216326#9 725216326#10 710374312 709814103#0 709814103#1 709814103#2"/>
    </vehicle>
    <vehicle id="39" depart="39.00">
        <route edges="687646996#0 687646996#1 687646996#2"/>
    </vehicle>
    <vehicle id="40" depart="40.00">
        <route edges="709818278#4 709818278#5 709818278#6 709818278#7 709818278#8 709818278#9 687664031#0 687664031#1 687664031#2 687664031#3 -197145499 687646996#0 687646996#1 687646996#2 687646996#3 687646996#4"/>
    </vehicle>
    <vehicle id="41" depart="41.00">
        <route edges="709818278#4 709818278#5 709818278#6 709818278#7 709818278#8 709818278#9 687664031#0 687664031#1 687664031#2 687664031#3 -197145499 687646996#0 687646996#1 687646996#2 687646996#3 687646996#4 687646996#5 687646996#6 687646996#7 687646996#8 687647803#0 687647803#1 687647803#2 687648709#0 687648709#1 687648709#2 687648707 710374313 687648706#0 687648706#1 687651315#0 687651315#1 687651315#2 55083309 725216326#5 725216326#6 725216326#7 725216326#8"/>
    </vehicle>
    <vehicle id="42" depart="42.00">
        <route edges="687648706#0 687648706#1 687651315#0 687651315#1 687651315#2 55083309 725216326#5 725216326#6 725216326#7 725216326#8 725216326#9 725216326#10 710374312 709814103#0 709814103#1 709814103#2 709814103#3 709814103#4 709814103#5 709818278#0 709818278#1 709818278#2 709818278#3 709818278#4 709818278#5 709818278#6 709818278#7 709818278#8 709818278#9 687664031#0 687664031#1 687664031#2 687664031#3 -197145499 687646996#0 687646996#1"/>
    </vehicle>
    <vehicle id="43" depart="43.00">
        <route edges="727606780 687654378#0 687654378#1 687654377 197144971 709825080 711425508#0 711425508#1 727606779#0 727606779#1 1125655182 711425507#0 711425507#1 725216324#0 725216324#1 725216324#2 725216324#3 725216323#0 725216323#1 471369594#0 471369594#1 471369594#2 471369594#3 471369594#4 471369594#5 471369594#6 471369594#7 471369594#8 471369594#9 725216325 725216326#0 725216326#1 725216326#2 725216326#3 725216326#4 725216326#5 725216326#6 725216326#7 725216326#8 725216326#9 725216326#10 710374312 709814103#0 709814103#1 709814103#2 709814103#3 709814103#4 709814103#5 709818278#0 709818278#1 709818278#2 709818278#3"/>
    </vehicle>
    <vehicle id="44" depart="44.00">
        <route edges="197881372#3 197881372#4 725216327 687652020 687654384#0 687654384#1 710370617 709823301#0 709823301#1 709823301#2 709823301#3 709823301#4 687652021#0 687652021#1 687652021#2 687652021#3 687654382 352306916 471369594#1 471369594#2 471369594#3 471369594#4 471369594#5 471369594#6 471369594#7 471369594#8 471369594#9 725216325 725216326#0 725216326#1 725216326#2 725216326#3 725216326#4 725216326#5 725216326#6 725216326#7 725216326#8 725216326#9 725216326#10 710374312 709814103#0 709814103#1 709814103#2 709814103#3 709814103#4 709814103#5 187958390 154086406#0 154086406#1 154086406#2"/>
    </vehicle>
    <vehicle id="45" depart="45.00">
        <route edges="265500219#6 265500219#7 197144971 709825080 711425508#0 711425508#1 727606779#0 727606779#1 1125655182 711425507#0 711425507#1 725216324#0 725216324#1 725216324#2 725216324#3 725216323#0 725216323#1 471369594#0 471369594#1 471369594#2 471369594#3 471369594#4 471369594#5 471369594#6 471369594#7 471369594#8 471369594#9 725216325 725216326#0 725216326#1 725216326#2 725216326#3 725216326#4 -55083309 197881372#0 197881372#1 197881372#2 197881372#3 197881372#4 725216327 687652020 687654384#0 687654384#1 710370617 709823301#0 709823301#1 709823301#2"/>
    </vehicle>
    <vehicle id="47" depart="47.00">
        <route edges="153956146#0 153956146#1 153956146#2 55083309 725216326#5 725216326#6 725216326#7 725216326#8 725216326#9 725216326#10 710374312 709814103#0 709814103#1 709814103#2 709814103#3 709814103#4 709814103#5 187958390 687648709#0 687648709#1 687648709#2"/>
    </vehicle>
    <vehicle id="48" depart="48.00">
        <route edges="727606779#0 727606779#1 1125655182 711425507#0 711425507#1 725216324#0 725216324#1 725216324#2 725216324#3 725216323#0 725216323#1 471369594#0 471369594#1 471369594#2 471369594#3 471369594#4 471369594#5 471369594#6 471369594#7 471369594#8 471369594#9 725216325 725216326#0 725216326#1 725216326#2 725216326#3 725216326#4 725216326#5 725216326#6 725216326#7 725216326#8 725216326#9 725216326#10 710374312 709814103#0 709814103#1 709814103#2 709814103#3 709814103#4 709814103#5 709818278#0 709818278#1 709818278#2 709818278#3 709818278#4"/>
    </vehicle>
    <vehicle id="49" depart="49.00">
        <route edges="727606775#3 727606775#4 709825080 711425508#0 711425508#1 727606779#0 727606779#1 1125655182 711425507#0 711425507#1 725216324#0 725216324#1 725216324#2 725216324#3 725216323#0 725216323#1 471369594#0 471369594#1 471369594#2 471369594#3 471369594#4 471369594#5 471369594#6 471369594#7 471369594#8 471369594#9 725216325 725216326#0 725216326#1 725216326#2 725216326#3 725216326#4 725216326#5 725216326#6 725216326#7 725216326#8 725216326#9 725216326#10"/>
    </vehicle>
    <vehicle id="50" depart="50.00">
        <route edges="-154086406#2 -154086406#1 -154086406#0 687648709#0 687648709#1 687648709#2 687648707 710374313 687648706#0 687648706#1 687651315#0 687651315#1 687651315#2 197881372#0 197881372#1 197881372#2 197881372#3 197881372#4 725216327 687652020 687654384#0 687654384#1 710370617 709823301#0 709823301#1 709823301#2 709823301#3 709823301#4 687652021#0 687652021#1 687652021#2 687652021#3 687654382 725216322 725216321 352306914 711063443#0 711063443#1 711063443#2 711063443#3"/>
    </vehicle>
    <vehicle id="51" depart="51.00">
        <route edges="709823301#2 709823301#3 709823301#4 687652021#0 687652021#1 687652021#2 687652021#3 687654382 352306916 471369594#1 471369594#2 471369594#3 471369594#4 471369594#5 471369594#6 471369594#7 471369594#8 471369594#9 725216325 725216326#0 725216326#1 725216326#2 725216326#3 725216326#4 725216326#5 725216326#6 725216326#7 725216326#8 725216326#9 725216326#10 710374312 709814103#0 709814103#1 709814103#2 709814103#3 709814103#4 709814103#5 709818278#0 709818278#1 709818278#2 709818278#3 709818278#4"/>
    </vehicle>
    <vehicle id="52" depart="52.00">
        <route edges="687646996#0 687646996#1 687646996#2 687646996#3 687646996#4 687646996#5 687646996#6 687646996#7 687646996#8 687647803#0 687647803#1 687647803#2 687648709#0 687648709#1 687648709#2 687648707 710374313 687648706#0 687648706#1 687651315#0 687651315#1 687651315#2 197881372#0 197881372#1 197881372#2 197881372#3 197881372#4 725216327 687652020 687654384#0 687654384#1 710370617 709823301#0 709823301#1 709823301#2 709823301#3"/>
    </vehicle>
    <vehicle id="53" depart="53.00">
        <route edges="265500219#6 265500219#7 197144971 709825080 711425508#0 711425508#1 727606779#0 727606779#1 1125655182 711425507#0 711425507#1 725216324#0 725216324#1 725216324#2 725216324#3 725216323#0 725216323#1 471369594#0 471369594#1 471369594#2 471369594#3 471369594#4 471369594#5 471369594#6 471369594#7 471369594#8 471369594#9 725216325 725216326#0 725216326#1 725216326#2 725216326#3 725216326#4 725216326#5 725216326#6 725216326#7 725216326#8 725216326#9 725216326#10 710374312 709814103#0 709814103#1 709814103#2 709814103#3 709814103#4 709814103#5 709818278#0 709818278#1 709818278#2 709818278#3 709818278#4 709818278#5 709818278#6 709818278#7 709818278#8 709818278#9 687664031#0"/>
    </vehicle>
    <vehicle id="55" depart="55.00">
        <route edges="725216326#1 725216326#2 725216326#3 725216326#4 725216326#5 725216326#6 725216326#7 725216326#8 725216326#9 725216326#10 710374312 709814103#0 709814103#1 709814103#2 709814103#3 709814103#4 709814103#5 709818278#0 709818278#1 709818278#2 709818278#3 709818278#4 709818278#5 709818278#6 709818278#7 709818278#8 709818278#9 687664031#0 687664031#1 687664031#2 687664031#3 -197145499 687646996#0 687646996#1 687646996#2 687646996#3 687646996#4"/>
    </vehicle>
    <vehicle id="56" depart="56.00">
        <route edges="709814103#0 709814103#1 709814103#2 709814103#3 709814103#4 709814103#5 187958390 687648709#0 687648709#1 687648709#2 687648707 710374313 687648706#0 687648706#1 687651315#0 687651315#1 687651315#2 197881372#0 197881372#1 197881372#2 197881372#3 197881372#4 725216327 687652020 687654384#0 687654384#1 710370617 709823301#0 709823301#1 709823301#2 709823301#3 709823301#4 687652021#0 687652021#1 687652021#2 687652021#3 687654382 352306916 471369594#1 471369594#2 471369594#3 471369594#4 471369594#5 471369594#6 471369594#7 471369594#8"/>
    </vehicle>
    <vehicle id="57" depart="57.00">
        <route edges="725216326#7 725216326#8 725216326#9 725216326#10 710374312 709814104 710374313 687648706#0 687648706#1 687651315#0 687651315#1 687651315#2 197881372#0 197881372#1 197881372#2 197881372#3 197881372#4 725216327 687652020 687654384#0 687654384#1 710370617 709823301#0 709823301#1 709823301#2 709823301#3 709823301#4 687652021#0 687652021#1 687652021#2 687652021#3 687654382 352306916 471369594#1 471369594#2 471369594#3 471369594#4 471369594#5 471369594#6 471369594#7 471369594#8 471369594#9 725216325 725216326#0 725216326#1 725216326#2"/>
    </vehicle>
    <vehicle id="58" depart="58.00">
        <route edges="687646996#2 687646996#3 687646996#4 687646996#5 687646996#6 687646996#7 687646996#8 687647803#0 687647803#1 687647803#2 687648709#0 687648709#1 687648709#2 687648707 710374313 687648706#0 687648706#1 687651315#0 687651315#1 687651315#2 197881372#0 197881372#1 197881372#2 197881372#3 197881372#4 725216327 687652020 687654384#0 687654384#1 710370617 709823301#0 709823301#1 709823301#2 709823301#3"/>
    </vehicle>
    <vehicle id="59" depart="59.00">
        <route edges="709818278#6 709818278#7 709818278#8 709818278#9 687664031#0 687664031#1 687664031#2 687664031#3 -197145499 687646996#0 687646996#1 687646996#2 687646996#3 687646996#4 687646996#5 687646996#6 687646996#7 687646996#8 687647803#0 687647803#1 687647803#2 687648709#0 687648709#1 687648709#2 687648707 710374313 687648706#0 687648706#1 687651315#0 687651315#1 687651315#2 197881372#0 197881372#1 197881372#2 197881372#3 197881372#4 725216327 687652020 687654384#0 687654384#1 710370617 709823301#0 709823301#1 709823301#2 709823301#3 709823301#4 687652021#0 687652021#1 687652021#2 687652021#3 687654382 352306916 471369594#1 471369594#2 471369594#3 471369594#4 471369594#5 471369594#6 471369594#7"/>
    </vehicle>
    <vehicle id="60" depart="60.00">
        <route edges="711063443#3 711063443#4 1125655183 727606780 687654378#0 687654378#1 687654377 197144971 709825080 711425508#0 711425508#1 727606779#0 727606779#1 1125655182 711425507#0 711425507#1 725216324#0 725216324#1 725216324#2 725216324#3 725216323#0 725216323#1 471369594#0 471369594#1 471369594#2 471369594#3 471369594#4 471369594#5 471369594#6 471369594#7 471369594#8 471369594#9 725216325 725216326#0 725216326#1 725216326#2 725216326#3 725216326#4 725216326#5 725216326#6 725216326#7 725216326#8 725216326#9 725216326#10 710374312 709814103#0 709814103#1 709814103#2 709814103#3 709814103#4 709814103#5 709818278#0 709818278#1 709818278#2 709818278#3 709818278#4"/>
    </vehicle>
    <vehicle id="62" depart="62.00">
        <route edges="-154086406#2 -154086406#1 -154086406#0 687648709#0 687648709#1 687648709#2 687648707 710374313 687648706#0"/>
    </vehicle>
    <vehicle id="63" depart="63.00">
        <route edges="-687651314#2 -687651314#1 -687651314#0 725216326#5 725216326#6 725216326#7 725216326#8 725216326#9 725216326#10 710374312 709814103#0 709814103#1 709814103#2 709814103#3 709814103#4 709814103#5 726014605#0 726014605#1 726014605#2"/>
    </vehicle>
    <vehicle id="64" depart="64.00">
        <route edges="725216326#1 725216326#2 725216326#3 725216326#4 -55083309 197881372#0 197881372#1 197881372#2 197881372#3 197881372#4 725216327 687652020 687654384#0 687654384#1 710370617 709823301#0 709823301#1 709823301#2 709823301#3 709823301#4 687652021#0 687652021#1 687652021#2 687652021#3 687654382 725216322 725216321 352306914 711063443#0 711063443#1 711063443#2 711063443#3 711063443#4 1125655183 727606780 687654378#0 687654378#1 687654377 197144971 709825080 711425508#0 711425508#1 727606779#0 727606779#1 1125655182 711425507#0 711425507#1 725216324#0 725216324#1 725216324#2 725216324#3"/>
    </vehicle>
    <vehicle id="65" depart="65.00">
        <route edges="687646996#2 687646996#3 687646996#4 687646996#5 687646996#6 687646996#7 687646996#8 687647803#0 687647803#1 687647803#2 154086406#0 154086406#1 154086406#2"/>
    </vehicle>
    <vehicle id="67" depart="67.00">
        <route edges="197881372#2 197881372#3 197881372#4 725216327 687652020 687654384#0 687654384#1 710370617 709823301#0 709823301#1 709823301#2 709823301#3 709823301#4 687652021#0 687652021#1 687652021#2 687652021#3 687654382 352306916 471369594#1 471369594#2 471369594#3 471369594#4 471369594#5 471369594#6 471369594#7 471369594#8 471369594#9 725216325 725216326#0 725216326#1 725216326#2 725216326#3 725216326#4 725216326#5 725216326#6 725216326#7 725216326#8 725216326#9 725216326#10 710374312 709814103#0 709814103#1 709814103#2 709814103#3 709814103#4 709814103#5 709818278#0"/>
    </vehicle>
    <vehicle id="68" depart="68.00">
        <route edges="153956146#0 153956146#1 153956146#2 197881372#0 197881372#1 197881372#2 197881372#3 197881372#4 725216327 687652020 687654384#0 687654384#1 710370617 709823301#0 709823301#1 709823301#2 709823301#3 709823301#4 687652021#0 687652021#1 687652021#2 687652021#3 687654382 725216322 725216321 352306914 711063443#0 711063443#1 711063443#2 711063443#3 711063443#4 1125655183 727606780 687654378#0 687654378#1 711067145#0 711067145#1"/>
    </vehicle>
    <vehicle id="69" depart="69.00">
        <route edges="711063443#3 711063443#4 1125655183 727606780 687654378#0 687654378#1 687654377 197144971 709825080 711425508#0 711425508#1 727606779#0 727606779#1 1125655182 711425507#0 711425507#1 725216324#0 725216324#1 725216324#2 725216324#3 725216323#0 725216323#1 471369594#0 471369594#1 471369594#2 471369594#3 471369594#4"/>
    </vehicle>
    <vehicle id="70" depart="70.00">
        <route edges="687654378#0 687654378#1 687654377 197144971 709825080 711425508#0 711425508#1 727606779#0 727606779#1 1125655182 711425507#0 711425507#1 725216324#0 725216324#1 725216324#2 725216324#3 725216323#0 725216323#1 471369594#0 471369594#1 471369594#2 471369594#3 471369594#4 471369594#5 471369594#6 471369594#7 471369594#8 471369594#9 725216325 725216326#0 725216326#1 725216326#2 725216326#3 725216326#4 725216326#5 725216326#6 725216326#7 725216326#8 725216326#9 725216326#10 710374312 709814103#0 709814103#1 709814103#2 709814103#3 709814103#4 709814103#5 709818278#0 709818278#1 709818278#2 709818278#3 709818278#4 709818278#5"/>
    </vehicle>
    <vehicle id="71" depart="71.00">