<?xml version="1.0" encoding="UTF-8"?>

<!-- generated on 2023-11-15 13:17:47 by Eclipse SUMO netedit Version 1.18.0
<configuration xmlns:xsi="http://www.w3.org/2001/XMLSchema-instance" xsi:noNamespaceSchemaLocation="http://sumo.dlr.de/xsd/neteditConfiguration.xsd">

    <input>
        <sumo-net-file value="C:\Users\HP\Documents\chula\year4\Capstone\manual\manual.net.xml"/>
    </input>

    <output>
        <output-file value="C:\Users\HP\Documents\chula\year4\Capstone\manual\manual.net.xml"/>
    </output>

    <processing>
        <geometry.min-radius.fix.railways value="false"/>
        <geometry.max-grade.fix value="false"/>
        <offset.disable-normalization value="true"/>
        <lefthand value="0"/>
    </processing>

    <junctions>
        <no-turnarounds value="true"/>
        <junctions.corner-detail value="5"/>
        <junctions.limit-turn-speed value="5.50"/>
        <rectangular-lane-cut value="0"/>
    </junctions>

    <pedestrian>
        <walkingareas value="0"/>
    </pedestrian>

</configuration>
-->

<net version="1.16" junctionCornerDetail="5" limitTurnSpeed="5.50" xmlns:xsi="http://www.w3.org/2001/XMLSchema-instance" xsi:noNamespaceSchemaLocation="http://sumo.dlr.de/xsd/net_file.xsd">

    <location netOffset="0.00,0.00" convBoundary="-70.00,-30.00,160.00,150.00" origBoundary="-10000000000.00,-10000000000.00,10000000000.00,10000000000.00" projParameter="!"/>

    <edge id=":J1_0" function="internal">
        <lane id=":J1_0_0" index="0" speed="6.52" length="9.05" shape="38.87,69.78 38.50,67.32 37.44,65.56 35.69,64.52 33.24,64.17"/>
    </edge>
    <edge id=":J1_1" function="internal">
        <lane id=":J1_1_0" index="0" speed="13.89" length="27.29" shape="38.87,69.78 38.80,42.47"/>
        <lane id=":J1_1_1" index="1" speed="13.89" length="27.29" shape="42.07,69.75 42.00,42.47"/>
    </edge>
    <edge id=":J1_3" function="internal">
        <lane id=":J1_3_0" index="0" speed="9.85" length="6.52" shape="42.07,69.75 42.76,63.27"/>
    </edge>
    <edge id=":J1_18" function="internal">
        <lane id=":J1_18_0" index="0" speed="9.85" length="15.54" shape="42.76,63.27 42.78,63.10 45.01,58.33 48.77,55.45 54.05,54.46"/>
    </edge>
    <edge id=":J1_4" function="internal">
        <lane id=":J1_4_0" index="0" speed="6.53" length="9.11" shape="54.12,64.06 51.64,64.43 49.86,65.49 48.81,67.25 48.47,69.70"/>
    </edge>
    <edge id=":J1_5" function="internal">
        <lane id=":J1_5_0" index="0" speed="13.89" length="20.87" shape="54.12,64.06 33.24,64.17"/>
        <lane id=":J1_5_1" index="1" speed="13.89" length="20.87" shape="54.10,60.86 33.23,60.97"/>
        <lane id=":J1_5_2" index="2" speed="13.89" length="20.87" shape="54.08,57.66 33.22,57.77"/>
    </edge>
    <edge id=":J1_8" function="internal">
        <lane id=":J1_8_0" index="0" speed="9.82" length="4.07" shape="54.08,57.66 50.07,56.97"/>
    </edge>
    <edge id=":J1_19" function="internal">
        <lane id=":J1_19_0" index="0" speed="9.82" length="18.02" shape="50.07,56.97 48.78,56.75 45.00,53.91 42.74,49.15 42.00,42.47"/>
    </edge>
    <edge id=":J1_9" function="internal">
        <lane id=":J1_9_0" index="0" speed="6.49" length="9.03" shape="48.40,42.49 48.74,44.94 49.79,46.69 51.55,47.73 54.00,48.06"/>
    </edge>
    <edge id=":J1_10" function="internal">
        <lane id=":J1_10_0" index="0" speed="13.89" length="27.23" shape="48.40,42.49 48.47,69.70"/>
        <lane id=":J1_10_1" index="1" speed="13.89" length="27.23" shape="45.20,42.48 45.27,69.73"/>
    </edge>
    <edge id=":J1_12" function="internal">
        <lane id=":J1_12_0" index="0" speed="9.87" length="6.09" shape="45.20,42.48 44.51,48.53"/>
    </edge>
    <edge id=":J1_20" function="internal">
        <lane id=":J1_20_0" index="0" speed="9.87" length="15.94" shape="44.51,48.53 44.44,49.16 42.19,53.93 38.45,56.80 33.22,57.77"/>
    </edge>
    <edge id=":J1_13" function="internal">
        <lane id=":J1_13_0" index="0" speed="6.55" length="9.12" shape="33.19,48.17 35.64,47.81 37.39,46.74 38.44,44.96 38.80,42.47"/>
    </edge>
    <edge id=":J1_14" function="internal">
        <lane id=":J1_14_0" index="0" speed="13.89" length="20.83" shape="33.19,48.17 54.00,48.06"/>
        <lane id=":J1_14_1" index="1" speed="13.89" length="20.83" shape="33.20,51.37 54.03,51.26"/>
        <lane id=":J1_14_2" index="2" speed="13.89" length="20.83" shape="33.21,54.57 54.05,54.46"/>
    </edge>
    <edge id=":J1_17" function="internal">
        <lane id=":J1_17_0" index="0" speed="9.85" length="3.95" shape="33.21,54.57 37.10,55.27"/>
    </edge>
    <edge id=":J1_21" function="internal">
        <lane id=":J1_21_0" index="0" speed="9.85" length="18.02" shape="37.10,55.27 38.44,55.51 42.20,58.34 44.48,63.08 45.27,69.73"/>
    </edge>

    <edge id="-E0" from="J1" to="J0" priority="-1">
        <lane id="-E0_0" index="0" speed="13.89" length="103.21" shape="33.24,64.17 -69.97,64.50"/>
        <lane id="-E0_1" index="1" speed="13.89" length="103.21" shape="33.23,60.97 -69.98,61.30"/>
        <lane id="-E0_2" index="2" speed="13.89" length="103.21" shape="33.22,57.77 -69.99,58.10"/>
    </edge>
    <edge id="-E1" from="J2" to="J1" priority="-1">
        <lane id="-E1_0" index="0" speed="13.89" length="80.26" shape="39.48,150.04 38.87,69.78"/>
        <lane id="-E1_1" index="1" speed="13.89" length="80.26" shape="42.68,150.01 42.07,69.75"/>
    </edge>
    <edge id="-E2" from="J3" to="J1" priority="-1">
        <lane id="-E2_0" index="0" speed="13.89" length="105.94" shape="160.06,63.25 54.12,64.06"/>
        <lane id="-E2_1" index="1" speed="13.89" length="105.94" shape="160.04,60.05 54.10,60.86"/>
        <lane id="-E2_2" index="2" speed="13.89" length="105.94" shape="160.01,56.85 54.08,57.66"/>
    </edge>
    <edge id="-E3" from="J4" to="J1" priority="-1">
        <lane id="-E3_0" index="0" speed="13.89" length="72.48" shape="48.55,-29.99 48.40,42.49"/>
        <lane id="-E3_1" index="1" speed="13.89" length="72.48" shape="45.35,-30.00 45.20,42.48"/>
    </edge>
    <edge id="E0" from="J0" to="J1" priority="-1">
        <lane id="E0_0" index="0" speed="13.89" length="103.21" shape="-70.03,48.50 33.19,48.17"/>
        <lane id="E0_1" index="1" speed="13.89" length="103.21" shape="-70.02,51.70 33.20,51.37"/>
        <lane id="E0_2" index="2" speed="13.89" length="103.21" shape="-70.01,54.90 33.21,54.57"/>
    </edge>
    <edge id="E1" from="J1" to="J2" priority="-1">
        <lane id="E1_0" index="0" speed="13.89" length="80.26" shape="48.47,69.70 49.08,149.96"/>
        <lane id="E1_1" index="1" speed="13.89" length="80.26" shape="45.27,69.73 45.88,149.99"/>
    </edge>
    <edge id="E2" from="J1" to="J3" priority="-1">
        <lane id="E2_0" index="0" speed="13.89" length="105.94" shape="54.00,48.06 159.94,47.25"/>
        <lane id="E2_1" index="1" speed="13.89" length="105.94" shape="54.03,51.26 159.96,50.45"/>
        <lane id="E2_2" index="2" speed="13.89" length="105.94" shape="54.05,54.46 159.99,53.65"/>
    </edge>
    <edge id="E3" from="J1" to="J4" priority="-1">
        <lane id="E3_0" index="0" speed="13.89" length="72.48" shape="38.80,42.47 38.95,-30.01"/>
        <lane id="E3_1" index="1" speed="13.89" length="72.48" shape="42.00,42.47 42.15,-30.00"/>
    </edge>

    <tlLogic id="J1" type="static" programID="0" offset="0">
        <phase duration="30" state="rrrrGGGGgrrrrGGGGg"/>
        <phase duration="4"  state="rrrryyyyyrrrryyyyy"/>
        <phase duration="30" state="GGGgrrrrrGGGgrrrrr"/>
        <phase duration="4"  state="yyyyrrrrryyyyrrrrr"/>
    </tlLogic>

    <junction id="J0" type="dead_end" x="-70.00" y="56.50" incLanes="-E0_0 -E0_1 -E0_2" intLanes="" shape="-70.00,56.50 -69.97,66.10 -70.00,56.50"/>
    <junction id="J1" type="traffic_light" x="43.57" y="56.14" incLanes="-E1_0 -E1_1 -E2_0 -E2_1 -E2_2 -E3_0 -E3_1 E0_0 E0_1 E0_2" intLanes=":J1_0_0 :J1_1_0 :J1_1_1 :J1_18_0 :J1_4_0 :J1_5_0 :J1_5_1 :J1_5_2 :J1_19_0 :J1_9_0 :J1_10_0 :J1_10_1 :J1_20_0 :J1_13_0 :J1_14_0 :J1_14_1 :J1_14_2 :J1_21_0" shape="37.27,69.79 50.07,69.69 50.51,67.47 51.07,66.68 51.87,66.12 52.89,65.78 54.14,65.66 53.99,46.46 51.77,46.03 50.99,45.48 50.44,44.71 50.11,43.71 50.00,42.49 37.20,42.46 36.75,44.74 36.19,45.54 35.41,46.11 34.41,46.46 33.18,46.57 33.24,65.77 35.47,66.21 36.25,66.77 36.81,67.55 37.15,68.56">
        <request index="0"  response="000000000011100000" foes="000000000011100000" cont="0"/>
        <request index="1"  response="111110000111100000" foes="111111000111100000" cont="0"/>
        <request index="2"  response="111110000111100000" foes="111111000111100000" cont="0"/>
        <request index="3"  response="111100110111100000" foes="111100110111100000" cont="1"/>
        <request index="4"  response="000000000000000000" foes="000000110000000000" cont="0"/>
        <request index="5"  response="000001000000001000" foes="100001110000001111" cont="0"/>
        <request index="6"  response="000001000000001000" foes="100001110000001111" cont="0"/>
        <request index="7"  response="000001000000001000" foes="100001110000001111" cont="0"/>
        <request index="8"  response="011101000000001000" foes="011101110000001110" cont="1"/>
        <request index="9"  response="011100000000000000" foes="011100000000000000" cont="0"/>
        <request index="10" response="111100000111110000" foes="111100000111111000" cont="0"/>
        <request index="11" response="111100000111110000" foes="111100000111111000" cont="0"/>
        <request index="12" response="111100000111100110" foes="111100000111100110" cont="1"/>
        <request index="13" response="000000000000000000" foes="000000000000000110" cont="0"/>
        <request index="14" response="000001000000001000" foes="000001111100001110" cont="0"/>
        <request index="15" response="000001000000001000" foes="000001111100001110" cont="0"/>
        <request index="16" response="000001000000001000" foes="000001111100001110" cont="0"/>
        <request index="17" response="000001000011101000" foes="000001110011101110" cont="1"/>
    </junction>
    <junction id="J2" type="dead_end" x="44.28" y="150.00" incLanes="E1_0 E1_1" intLanes="" shape="44.28,150.00 50.68,149.95 44.28,150.00"/>
    <junction id="J3" type="dead_end" x="160.00" y="55.25" incLanes="E2_0 E2_1 E2_2" intLanes="" shape="160.00,55.25 159.93,45.65 160.00,55.25"/>
    <junction id="J4" type="dead_end" x="43.75" y="-30.00" incLanes="E3_0 E3_1" intLanes="" shape="43.75,-30.00 37.35,-30.01 43.75,-30.00"/>

    <junction id=":J1_18_0" type="internal" x="42.76" y="63.27" incLanes=":J1_3_0 -E3_0 -E3_1" intLanes=":J1_5_0 :J1_5_1 :J1_5_2 :J1_8_0 :J1_9_0 :J1_10_0 :J1_10_1 :J1_14_0 :J1_14_1 :J1_14_2 :J1_17_0"/>
    <junction id=":J1_19_0" type="internal" x="50.07" y="56.97" incLanes=":J1_8_0 E0_0 E0_1 E0_2" intLanes=":J1_1_0 :J1_1_1 :J1_3_0 :J1_10_0 :J1_10_1 :J1_12_0 :J1_13_0 :J1_14_0 :J1_14_1 :J1_14_2"/>
    <junction id=":J1_20_0" type="internal" x="44.51" y="48.53" incLanes=":J1_12_0 -E1_0 -E1_1" intLanes=":J1_0_0 :J1_1_0 :J1_1_1 :J1_5_0 :J1_5_1 :J1_5_2 :J1_8_0 :J1_14_0 :J1_14_1 :J1_14_2 :J1_17_0"/>
    <junction id=":J1_21_0" type="internal" x="37.10" y="55.27" incLanes=":J1_17_0 -E2_0 -E2_1 -E2_2" intLanes=":J1_1_0 :J1_1_1 :J1_3_0 :J1_4_0 :J1_5_0 :J1_5_1 :J1_5_2 :J1_10_0 :J1_10_1 :J1_12_0"/>

    <connection from="-E1" to="-E0" fromLane="0" toLane="0" via=":J1_0_0" tl="J1" linkIndex="0" dir="r" state="o"/>
    <connection from="-E1" to="E3" fromLane="0" toLane="0" via=":J1_1_0" tl="J1" linkIndex="1" dir="s" state="o"/>
    <connection from="-E1" to="E3" fromLane="1" toLane="1" via=":J1_1_1" tl="J1" linkIndex="2" dir="s" state="o"/>
    <connection from="-E1" to="E2" fromLane="1" toLane="2" via=":J1_3_0" tl="J1" linkIndex="3" dir="l" state="o"/>
    <connection from="-E2" to="E1" fromLane="0" toLane="0" via=":J1_4_0" tl="J1" linkIndex="4" dir="r" state="O"/>
    <connection from="-E2" to="-E0" fromLane="0" toLane="0" via=":J1_5_0" tl="J1" linkIndex="5" dir="s" state="O"/>
    <connection from="-E2" to="-E0" fromLane="1" toLane="1" via=":J1_5_1" tl="J1" linkIndex="6" dir="s" state="O"/>
    <connection from="-E2" to="-E0" fromLane="2" toLane="2" via=":J1_5_2" tl="J1" linkIndex="7" dir="s" state="O"/>
    <connection from="-E2" to="E3" fromLane="2" toLane="1" via=":J1_8_0" tl="J1" linkIndex="8" dir="l" state="o"/>
    <connection from="-E3" to="E2" fromLane="0" toLane="0" via=":J1_9_0" tl="J1" linkIndex="9" dir="r" state="o"/>
    <connection from="-E3" to="E1" fromLane="0" toLane="0" via=":J1_10_0" tl="J1" linkIndex="10" dir="s" state="o"/>
    <connection from="-E3" to="E1" fromLane="1" toLane="1" via=":J1_10_1" tl="J1" linkIndex="11" dir="s" state="o"/>
    <connection from="-E3" to="-E0" fromLane="1" toLane="2" via=":J1_12_0" tl="J1" linkIndex="12" dir="l" state="o"/>
    <connection from="E0" to="E3" fromLane="0" toLane="0" via=":J1_13_0" tl="J1" linkIndex="13" dir="r" state="O"/>
    <connection from="E0" to="E2" fromLane="0" toLane="0" via=":J1_14_0" tl="J1" linkIndex="14" dir="s" state="O"/>
    <connection from="E0" to="E2" fromLane="1" toLane="1" via=":J1_14_1" tl="J1" linkIndex="15" dir="s" state="O"/>
    <connection from="E0" to="E2" fromLane="2" toLane="2" via=":J1_14_2" tl="J1" linkIndex="16" dir="s" state="O"/>
    <connection from="E0" to="E1" fromLane="2" toLane="1" via=":J1_17_0" tl="J1" linkIndex="17" dir="l" state="o"/>

    <connection from=":J1_0" to="-E0" fromLane="0" toLane="0" dir="r" state="M"/>
    <connection from=":J1_1" to="E3" fromLane="0" toLane="0" dir="s" state="M"/>
    <connection from=":J1_1" to="E3" fromLane="1" toLane="1" dir="s" state="M"/>
    <connection from=":J1_3" to="E2" fromLane="0" toLane="2" via=":J1_18_0" dir="l" state="m"/>
    <connection from=":J1_18" to="E2" fromLane="0" toLane="2" dir="l" state="M"/>
    <connection from=":J1_4" to="E1" fromLane="0" toLane="0" dir="r" state="M"/>
    <connection from=":J1_5" to="-E0" fromLane="0" toLane="0" dir="s" state="M"/>
    <connection from=":J1_5" to="-E0" fromLane="1" toLane="1" dir="s" state="M"/>
    <connection from=":J1_5" to="-E0" fromLane="2" toLane="2" dir="s" state="M"/>
    <connection from=":J1_8" to="E3" fromLane="0" toLane="1" via=":J1_19_0" dir="l" state="m"/>
    <connection from=":J1_19" to="E3" fromLane="0" toLane="1" dir="l" state="M"/>
    <connection from=":J1_9" to="E2" fromLane="0" toLane="0" dir="r" state="M"/>
    <connection from=":J1_10" to="E1" fromLane="0" toLane="0" dir="s" state="M"/>
    <connection from=":J1_10" to="E1" fromLane="1" toLane="1" dir="s" state="M"/>
    <connection from=":J1_12" to="-E0" fromLane="0" toLane="2" via=":J1_20_0" dir="l" state="m"/>
    <connection from=":J1_20" to="-E0" fromLane="0" toLane="2" dir="l" state="M"/>
    <connection from=":J1_13" to="E3" fromLane="0" toLane="0" dir="r" state="M"/>
    <connection from=":J1_14" to="E2" fromLane="0" toLane="0" dir="s" state="M"/>
    <connection from=":J1_14" to="E2" fromLane="1" toLane="1" dir="s" state="M"/>
    <connection from=":J1_14" to="E2" fromLane="2" toLane="2" dir="s" state="M"/>
    <connection from=":J1_17" to="E1" fromLane="0" toLane="1" via=":J1_21_0" dir="l" state="m"/>
    <connection from=":J1_21" to="E1" fromLane="0" toLane="1" dir="l" state="M"/>

</net>
