<configuration>

<input>
<net-file value="2-intersection.net.xml" /> 
<route-files value="trips/30minutes/3600-vph.rou.xml" />
</input>
<time>
<begin value="0" />
<end value="10000" />
</time>

</configuration>
