<configuration>

<input>
<net-file value="./saint_paul/junction.net.xml" /> 
<route-files value="./saint_paul/1.0hour/trips/situation/evening_4500.rou.xml" />
</input>
<time>
<begin value="0" />
<end value="10000" />
</time>

</configuration>
