<routes>
  <route id="route_ns" edges="-E2 E0" />
  <route id="route_ne" edges="-E2 E3" />
  <route id="route_nw" edges="-E2 E1" />
  <route id="route_sn" edges="-E0 E2" />
  <route id="route_se" edges="-E0 E3" />
  <route id="route_sw" edges="-E0 E1" />
  <route id="route_en" edges="-E3 E2" />
  <route id="route_es" edges="-E3 E0" />
  <route id="route_ew" edges="-E3 E1" />
  <route id="route_wn" edges="-E1 E2" />
  <route id="route_ws" edges="-E1 E0" />
  <route id="route_we" edges="-E1 E3" />

  <!-- <flow id="flow_sn" route="route_ns" begin="0" end="100" vehsPerHour="2000" />
  <flow id="flow_sw" route="route_sw" begin="0" end="100" vehsPerHour="2000" />
  <flow id="flow_se" route="route_se" begin="0" end="100" vehsPerHour="2000" /> -->

  <vehicle id="0"  route="route_ns" depart="0" />
  <vehicle id="1"  route="route_ns" depart="0" />
  <vehicle id="2"  route="route_ns" depart="0" />
  <vehicle id="3"  route="route_ns" depart="0" />
  <vehicle id="4"  route="route_ns" depart="0" />
  <vehicle id="5"  route="route_ns" depart="0" />
  <vehicle id="6"  route="route_ns" depart="0" />
  <vehicle id="7"  route="route_ns" depart="0" />
  <vehicle id="8"  route="route_ns" depart="0" />
  <vehicle id="9"  route="route_ns" depart="0" />
  <vehicle id="10"  route="route_ns" depart="0" />
  <vehicle id="11"  route="route_ns" depart="0" />

</routes>
