<routes>
  <vType id='rain' vClass='passenger' maxSpeed="11.11"/>
  <route id="route_ns" edges="-E2 E0" />
  <flow id="flow_ns" route="route_ns" type="rain" begin="0" end="3600" vehsPerHour="1500" departSpeed="max" departPos="base" departLane="best" />
  <route id="route_ne" edges="-E2 E3" />
  <flow id="flow_ne" route="route_ne" type="rain" begin="0" end="3600" vehsPerHour="90" departSpeed="max" departPos="base" departLane="best" />
  <route id="route_nw" edges="-E2 E1" />
  <flow id="flow_nw" route="route_nw" type="rain" begin="0" end="3600" vehsPerHour="60" departSpeed="max" departPos="base" departLane="best" />
  <route id="route_sn" edges="-E0 E2" />
  <flow id="flow_sn" route="route_sn" type="rain" begin="0" end="3600" vehsPerHour="2000" departSpeed="max" departPos="base" departLane="best" />
  <route id="route_se" edges="-E0 E3" />
  <flow id="flow_se" route="route_se" type="rain" begin="0" end="3600" vehsPerHour="80" departSpeed="max" departPos="base" departLane="best" />
  <route id="route_sw" edges="-E0 E1" />
  <flow id="flow_sw" route="route_sw" type="rain" begin="0" end="3600" vehsPerHour="120" departSpeed="max" departPos="base" departLane="best" />
  <route id="route_en" edges="-E3 E2" />
  <flow id="flow_en" route="route_en" type="rain" begin="0" end="3600" vehsPerHour="120" departSpeed="max" departPos="base" departLane="best" />
  <route id="route_es" edges="-E3 E0" />
  <flow id="flow_es" route="route_es" type="rain" begin="0" end="3600" vehsPerHour="100" departSpeed="max" departPos="base" departLane="best" />
  <route id="route_ew" edges="-E3 E1" />
  <flow id="flow_ew" route="route_ew" type="rain" begin="0" end="3600" vehsPerHour="80" departSpeed="max" departPos="base" departLane="best" />
  <route id="route_wn" edges="-E1 E2" />
  <flow id="flow_wn" route="route_wn" type="rain" begin="0" end="3600" vehsPerHour="100" departSpeed="max" departPos="base" departLane="best" />
  <route id="route_ws" edges="-E1 E0" />
  <flow id="flow_ws" route="route_ws" type="rain" begin="0" end="3600" vehsPerHour="100" departSpeed="max" departPos="base" departLane="best" />
  <route id="route_we" edges="-E1 E3" />
  <flow id="flow_we" route="route_we" type="rain" begin="0" end="3600" vehsPerHour="150" departSpeed="max" departPos="base" departLane="best" />
</routes>