<configuration>

<input>
<net-file value="junction.net.xml" /> 
<route-files value="1.0hour/trips/analysis.rou.xml" />
</input>
<time>
<begin value="0" />
<end value="10000" />
</time>

</configuration>
