<routes>
  <route id="route_ns" edges="-E1 E3" />
  <flow id="flow_ns" route="route_ns" begin="0" end="3600" vehsPerHour="1000" departSpeed="max" departPos="base" departLane="best" />
  </routes>