<configuration>

<input>
<net-file value="yay.net.xml" /> 
<route-files value="veh.rou.xml" />
</input>
<time>
<begin value="0" />
<end value="10000" />
</time>

</configuration>
