<routes>
  <route id="route_ns" edges="-E2 E0" />
  <route id="route_ne" edges="-E2 E3" />
  <route id="route_nw" edges="-E2 E1" />
  <route id="route_sn" edges="-E0 E2" />
  <route id="route_se" edges="-E0 E3" />
  <route id="route_sw" edges="-E0 E1" />
  <route id="route_en" edges="-E3 E2" />
  <route id="route_es" edges="-E3 E0" />
  <route id="route_ew" edges="-E3 E1" />
  <route id="route_wn" edges="-E1 E2" />
  <route id="route_ws" edges="-E1 E0" />
  <route id="route_we" edges="-E1 E3" />

  <flow id="flow_ns" route="route_ns" begin="0" end="3600" vehsPerHour="702" departSpeed="max" departPos="base" departLane="best" />
  <flow id="flow_ne" route="route_ne" begin="0" end="3600" vehsPerHour="45" departSpeed="max" departPos="base" departLane="best" />
  <flow id="flow_nw" route="route_nw" begin="0" end="3600" vehsPerHour="30" departSpeed="max" departPos="base" departLane="best" />
  
  <flow id="flow_sn" route="route_sn" begin="0" end="3600" vehsPerHour="1896" departSpeed="max" departPos="base" departLane="best" />
  <flow id="flow_se" route="route_se" begin="0" end="3600" vehsPerHour="50" departSpeed="max" departPos="base" departLane="best" />
  <flow id="flow_sw" route="route_sw" begin="0" end="3600" vehsPerHour="60" departSpeed="max" departPos="base" departLane="best" />
  
  <flow id="flow_en" route="route_en" begin="0" end="3600" vehsPerHour="80" departSpeed="max" departPos="base" departLane="best" />
  <flow id="flow_es" route="route_es" begin="0" end="3600" vehsPerHour="70" departSpeed="max" departPos="base" departLane="best" />
  <flow id="flow_ew" route="route_ew" begin="0" end="3600" vehsPerHour="472" departSpeed="max" departPos="base" departLane="best" />
  
  <flow id="flow_wn" route="route_wn" begin="0" end="3600" vehsPerHour="30" departSpeed="max" departPos="base" departLane="best" />
  <flow id="flow_ws" route="route_ws" begin="0" end="3600" vehsPerHour="60" departSpeed="max" departPos="base" departLane="best" />
  <flow id="flow_we" route="route_we" begin="0" end="3600" vehsPerHour="460" departSpeed="max" departPos="base" departLane="best" />
  
</routes>